data_1
_symmetry_space_group_name_H-M   ' Pccn '
loop_
_symmetry_equiv_pos_site_id
_symmetry_equiv_pos_as_xyz
1 X,Y,Z
2 X+1/2,-Y,-Z+1/2
3 -X,Y+1/2,-Z+1/2
4 -X+1/2,-Y+1/2,Z
5 -X,-Y,-Z
6 -X+1/2,Y,Z+1/2
7 X,-Y+1/2,Z+1/2
8 X+1/2,Y+1/2,-Z
_cell_length_a                    28.828
_cell_length_b                    18.8483
_cell_length_c                    9.5989
_cell_angle_alpha                 90.0
_cell_angle_beta                  90.0
_cell_angle_gamma                 90.0
loop_
_atom_site_label
_atom_site_type_symbol
_atom_site_fract_x
_atom_site_fract_y
_atom_site_fract_z
C1      C   0.835600   0.920291   0.167747
C2      C   0.833040   0.957773   0.035527
C3      C   0.848430   0.951400   0.300705
C4      C   0.860073   1.020317  -0.000515
C5      C   0.841608   1.025656   0.338208
C6      C   0.903738   1.040509   0.064188
C7      C   0.812395   1.072370   0.262591
C8      C   0.936912   0.992195   0.127195
C9      C   0.823693   0.846851   0.166781
C10     C   0.802362   0.930472  -0.067751
C11     C   0.864583   0.905132   0.407043
C12     C   0.841859   1.065904  -0.105480
C13     C   0.861301   1.052051   0.464874
C14     C   0.915233   1.114103   0.063461
C15     C   0.943090   0.918178   0.086959
C16     C   0.805798   1.141956   0.303223
C17     C   0.968785   1.020490   0.225502
C18     C   0.798420   0.817790   0.052513
C19     C   0.784981   0.859904  -0.055836
C20     C   0.836690   0.802587   0.280596
C21     C   0.789500   0.973546  -0.183852
C22     C   0.859651   0.830250   0.392358
C23     C   0.806160   1.041000  -0.196262
C24     C   0.884101   0.933390   0.532422
C25     C   0.858928   1.136605  -0.118705
C26     C   0.884462   1.004438   0.557631
C27     C   0.891936   1.161335  -0.029154
C28     C   0.972440   0.873454   0.169081
C29     C   0.855145   1.124136   0.502139
C30     C   0.950302   1.140389   0.154452
C31     C   0.925172   0.889101  -0.038248
C32     C   0.828215   1.168915   0.422366
C33     C   0.973778   1.095344   0.240509
C34     C   0.997586   0.974157   0.305936
C35     C   0.997829   0.902886   0.283227
C36     C   0.932725   0.819174  -0.074847
C37     C   0.978555   0.801395   0.131534
C38     C   0.958747   0.774109   0.012279
H1      H   0.793829   1.052757   0.172532
H2      H   0.782833   1.175853   0.242994
H3      H   0.788377   0.762238   0.056853
H4      H   0.762687   0.839545  -0.137996
H5      H   0.829073   0.746186   0.274408
H6      H   0.764818   0.952392  -0.258714
H7      H   0.871914   0.796212   0.476037
H8      H   0.793956   1.075962  -0.278551
H9      H   0.898611   0.896378   0.607564
H10     H   0.843560   1.171045  -0.196952
H11     H   0.899877   1.025609   0.652288
H12     H   0.902553   1.216674  -0.031003
H13     H   0.871220   1.143099   0.597644
H14     H   0.956934   1.197156   0.156426
H15     H   0.905985   0.922844  -0.108897
H16     H   0.823350   1.223925   0.452949
H17     H   0.998775   1.115444   0.315574
H18     H   1.019482   0.997553   0.385929
H19     H   1.019361   0.867892   0.345921
H20     H   0.918682   0.799127  -0.172241
H21     H   1.000344   0.768260   0.197291
H22     H   0.964136   0.718915  -0.016177
#END
